   72

Ti      1.617314    0.844975    2.370496
Ti      1.616695    4.223364    2.369507
Ti      1.617263    7.601760    2.370471
Ti      1.618637   10.980352    2.373316
Ti      1.618703   14.359834    2.373337
Ti      4.091145    2.533863   -0.366183
Ti      4.091164    5.912869   -0.366249
Ti      4.092129    9.291645   -0.363988
Ti      4.092854   12.670106   -0.362543
Ti      4.092163   16.048524   -0.363936
S       3.047008    0.843863   23.097268
S       3.045813    4.223421   23.097416
S       3.046830    7.602881   23.097390
S       3.047817   10.981816   23.099464
S       3.047736   14.358474   23.099632
S       2.662231    2.534718    3.911826
S       2.662241    5.912132    3.911783
S       2.663427    9.290081    3.913305
S       2.667700   12.670148    3.910181
S       2.663425   16.050185    3.913371
S       4.090740    0.845153    1.451536
S       4.090659    4.223398    1.450461
S       4.090726    7.601568    1.451451
S       4.092395   10.980456    1.454259
S       4.092462   14.359751    1.454303
S       1.616844    2.533865    0.556894
S       1.616869    5.912861    0.556897
S       1.617694    9.291903    0.558719
S       1.617946   12.670119    0.560547
S       1.617743   16.048334    0.558752
S       0.189125    0.843745   23.097411
S       0.187847    4.223284   23.094654
S       0.188962    7.602862   23.097102
S       0.189761   10.980913   23.098920
S       0.189690   14.359255   23.098812
S       0.571327    2.534650    3.910970
S       0.571328    5.912042    3.910978
S       0.572552    9.289375    3.913293
S       0.577347   12.670116    3.919553
S       0.572560   16.050809    3.913299
C       1.832418    3.517714    7.726994
C       1.832533    7.741262    7.709583
C       1.833087   11.964489    7.671538
C       1.832813   16.187710    7.697127
C       4.306272    3.517759    7.725793
C       4.306353    7.741184    7.708099
C       4.306829   11.964446    7.669975
C       4.306635   16.187855    7.695667
C       1.832522    0.705472    7.709583
C       1.832450    4.929047    7.727001
C       1.832837    9.152517    7.697117
C       1.833071   13.375744    7.671541
C       4.306355    0.705555    7.708103
C       4.306262    4.928982    7.725788
C       4.306637    9.152391    7.695662
C       4.306823   13.375766    7.669984
C       0.595570    1.406127    7.715208
C       0.595436    5.629469    7.724521
C       0.596069    9.852894    7.689297
C       0.596244   14.076248    7.675301
C       3.069486    1.406143    7.714780
C       3.069397    5.629467    7.724110
C       3.069810    9.852871    7.688811
C       3.069865   14.076266    7.674764
C       0.595426    2.817280    7.724520
C       0.595572    7.040627    7.715211
C       0.596253   11.263989    7.675298
C       0.596043   15.487327    7.689308
C       3.069384    2.817301    7.724104
C       3.069480    7.040606    7.714780
C       3.069876   11.263968    7.674757
C       3.069800   15.487361    7.688818
